REMARK  32 active torsions:
REMARK  status: ('A' for Active; 'I' for Inactive)
REMARK       I    between atoms: CA_2  and  C_3 
REMARK       I    between atoms: C_3  and  N_5 
REMARK       I    between atoms: N_5  and  CA_7 
REMARK       I    between atoms: CA_7  and  C_20 
REMARK       I    between atoms: CA_7  and  CB_8 
REMARK    1  A    between atoms: CB_8  and  CG_9 
REMARK    2  A    between atoms: CG_9  and  CD_10 
REMARK    3  A    between atoms: CD_10  and  NE_11 
REMARK       I    between atoms: NE_11  and  CZ_13 
REMARK       I    between atoms: CZ_13  and  NH1_14 
REMARK       I    between atoms: C_20  and  N_22 
REMARK       I    between atoms: N_22  and  CA_24 
REMARK       I    between atoms: CA_24  and  C_25 
REMARK       I    between atoms: C_25  and  N_27 
REMARK       I    between atoms: N_27  and  CA_29 
REMARK       I    between atoms: CA_29  and  C_33 
REMARK    4  A    between atoms: CA_29  and  CB_30 
REMARK       I    between atoms: C_33  and  N_35 
REMARK       I    between atoms: N_35  and  CA_37 
REMARK    5  A    between atoms: CA_37  and  CB_38 
REMARK       I    between atoms: CA_37  and  C_45 
REMARK    6  A    between atoms: CB_38  and  CG_39 
REMARK    7  A    between atoms: CG_39  and  CD_40 
REMARK       I    between atoms: CD_40  and  NE2_42 
REMARK       I    between atoms: C_45  and  N_47 
REMARK       I    between atoms: N_47  and  CA_49 
REMARK    8  A    between atoms: CA_49  and  CB_50 
REMARK       I    between atoms: CA_49  and  C_54 
REMARK    9  A    between atoms: CB_50  and  CG_51 
REMARK       I    between atoms: C_54  and  N_56 
REMARK       I    between atoms: N_56  and  CA_58 
REMARK       I    between atoms: CA_58  and  C_60 
REMARK       I    between atoms: C_60  and  N_62 
REMARK       I    between atoms: N_62  and  CA_64 
REMARK       I    between atoms: CA_64  and  C_66 
REMARK       I    between atoms: C_66  and  N_68 
REMARK       I    between atoms: N_68  and  CA_70 
REMARK       I    between atoms: CA_70  and  C_74 
REMARK   10  A    between atoms: CA_70  and  CB_71 
REMARK   11  A    between atoms: CB_71  and  SG_72 
REMARK       I    between atoms: C_74  and  N_76 
REMARK       I    between atoms: CA_80  and  C_81 
REMARK       I    between atoms: C_81  and  N_83 
REMARK       I    between atoms: N_83  and  CA_85 
REMARK       I    between atoms: CA_85  and  C_89 
REMARK   12  A    between atoms: CA_85  and  CB_86 
REMARK   13  A    between atoms: CB_86  and  OG_87 
REMARK       I    between atoms: C_89  and  N_91 
REMARK       I    between atoms: CA_95  and  C_96 
REMARK       I    between atoms: C_96  and  N_98 
REMARK       I    between atoms: N_98  and  CA_100 
REMARK       I    between atoms: CA_100  and  C_105 
REMARK   14  A    between atoms: CA_100  and  CB_101 
REMARK   15  A    between atoms: CB_101  and  CG_102 
REMARK       I    between atoms: C_105  and  N_107 
REMARK       I    between atoms: N_107  and  CA_109 
REMARK       I    between atoms: CA_109  and  C_110 
REMARK       I    between atoms: C_110  and  N_112 
REMARK       I    between atoms: N_112  and  CA_114 
REMARK   16  A    between atoms: CA_114  and  CB_115 
REMARK       I    between atoms: CA_114  and  C_119 
REMARK   17  A    between atoms: CB_115  and  CG_116 
REMARK   18  A    between atoms: CG_116  and  SD_117 
REMARK       I    between atoms: C_119  and  N_121 
REMARK       I    between atoms: N_121  and  CA_123 
REMARK       I    between atoms: CA_123  and  C_127 
REMARK   19  A    between atoms: CA_123  and  CB_124 
REMARK       I    between atoms: C_127  and  N_129 
REMARK       I    between atoms: N_129  and  CA_131 
REMARK   20  A    between atoms: CA_131  and  CB_132 
REMARK       I    between atoms: CA_131  and  C_136 
REMARK   21  A    between atoms: CB_132  and  CG_133 
REMARK       I    between atoms: C_136  and  N_138 
REMARK       I    between atoms: N_138  and  CA_140 
REMARK       I    between atoms: CA_140  and  C_141 
REMARK       I    between atoms: C_141  and  N_143 
REMARK       I    between atoms: N_143  and  CA_145 
REMARK   22  A    between atoms: CA_145  and  CB_146 
REMARK       I    between atoms: CA_145  and  C_149 
REMARK   23  A    between atoms: CB_146  and  OG_147 
REMARK       I    between atoms: C_149  and  N_151 
REMARK       I    between atoms: N_151  and  CA_153 
REMARK       I    between atoms: CA_153  and  C_160 
REMARK   24  A    between atoms: CA_153  and  CB_154 
REMARK   25  A    between atoms: CB_154  and  CG_155 
REMARK       I    between atoms: CG_155  and  ND2_157 
REMARK       I    between atoms: C_160  and  N_162 
REMARK       I    between atoms: CA_166  and  C_167 
REMARK       I    between atoms: C_167  and  N_169 
REMARK       I    between atoms: N_169  and  CA_171 
REMARK       I    between atoms: CA_171  and  C_175 
REMARK   26  A    between atoms: CA_171  and  CB_172 
REMARK   27  A    between atoms: CB_172  and  OG_173 
REMARK       I    between atoms: C_175  and  N_177 
REMARK       I    between atoms: N_177  and  CA_179 
REMARK   28  A    between atoms: CA_179  and  CB_180 
REMARK   29  A    between atoms: CA_179  and  C_183 
REMARK   30  A    between atoms: CB_180  and  SG_181 
REMARK       I    between atoms: C_183  and  N_185 
REMARK   31  A    between atoms: N_185  and  CA_187 
REMARK   32  A    between atoms: CA_187  and  C_189 
ROOT
ATOM      1  N   GLY     1      46.944  42.050  31.393  1.00  5.39     0.609 N 
ATOM      2  CA  GLY     1      48.158  41.266  31.175  1.00  5.39     0.466 C 
ATOM      3  C   GLY     1      49.361  41.813  31.944  1.00  5.39     0.252 C 
ATOM      4  O   GLY     1      50.350  41.112  32.143  1.00  5.39    -0.271 OA
ATOM      5  N   ARG     2      49.255  43.035  32.484  1.00  3.58    -0.346 N 
ATOM      6  H   ARG     2      48.386  43.516  32.281  1.00  3.58     0.163 HD
ATOM      7  CA  ARG     2      50.242  43.669  33.384  1.00  3.58     0.176 C 
ATOM      8  CB  ARG     2      50.003  45.204  33.375  1.00  3.58     0.036 C 
ATOM      9  C   ARG     2      50.327  43.006  34.773  1.00  3.58     0.240 C 
ATOM     10  O   ARG     2      50.730  43.648  35.738  1.00  3.58    -0.271 OA
ATOM     11  N   GLY     3      49.931  41.741  34.914  1.00  2.67    -0.351 N 
ATOM     12  H   GLY     3      49.754  41.212  34.070  1.00  2.67     0.163 HD
ATOM     13  CA  GLY     3      49.817  41.055  36.205  1.00  2.67     0.225 C 
ATOM     14  C   GLY     3      49.004  41.844  37.246  1.00  2.67     0.236 C 
ATOM     15  O   GLY     3      49.294  41.786  38.437  1.00  2.67    -0.272 OA
ATOM     16  N   VAL     4      48.039  42.644  36.777  1.00  1.99    -0.346 N 
ATOM     17  H   VAL     4      47.846  42.607  35.790  1.00  1.99     0.163 HD
ATOM     18  CA  VAL     4      47.161  43.501  37.582  1.00  1.99     0.180 C 
ATOM     19  C   VAL     4      46.036  42.656  38.177  1.00  1.99     0.241 C 
ATOM     20  O   VAL     4      44.911  42.603  37.693  1.00  1.99    -0.271 OA
ATOM     21  N   GLN     5      46.412  41.909  39.203  1.00  1.67    -0.346 N 
ATOM     22  H   GLN     5      47.353  42.048  39.556  1.00  1.67     0.163 HD
ATOM     23  CA  GLN     5      45.580  40.950  39.901  1.00  1.67     0.177 C 
ATOM     24  C   GLN     5      44.402  41.646  40.604  1.00  1.67     0.241 C 
ATOM     25  O   GLN     5      44.515  42.089  41.754  1.00  1.67    -0.271 OA
ATOM     26  N   LEU     6      43.258  41.731  39.928  1.00  1.59    -0.346 N 
ATOM     27  H   LEU     6      43.268  41.485  38.948  1.00  1.59     0.163 HD
ATOM     28  CA  LEU     6      41.980  41.978  40.593  1.00  1.59     0.177 C 
ATOM     29  C   LEU     6      41.722  40.916  41.666  1.00  1.59     0.241 C 
ATOM     30  O   LEU     6      42.079  39.747  41.520  1.00  1.59    -0.271 OA
ATOM     31  N   ALA     7      41.070  41.338  42.739  1.00  1.80    -0.346 N 
ATOM     32  H   ALA     7      40.928  42.340  42.844  1.00  1.80     0.163 HD
ATOM     33  CA  ALA     7      40.533  40.470  43.769  1.00  1.80     0.172 C 
ATOM     34  CB  ALA     7      41.592  40.245  44.860  1.00  1.80     0.042 C 
ATOM     35  C   ALA     7      39.253  41.095  44.315  1.00  1.80     0.240 C 
ATOM     36  O   ALA     7      39.281  42.221  44.821  1.00  1.80    -0.271 OA
ATOM     37  N   ALA     8      38.127  40.392  44.212  1.00  1.90    -0.346 N 
ATOM     38  H   ALA     8      38.161  39.480  43.788  1.00  1.90     0.163 HD
ATOM     39  CA  ALA     8      36.913  40.780  44.920  1.00  1.90     0.172 C 
ATOM     40  CB  ALA     8      35.806  39.765  44.614  1.00  1.90     0.042 C 
ATOM     41  C   ALA     8      37.202  40.897  46.418  1.00  1.90     0.240 C 
ATOM     42  O   ALA     8      37.743  39.965  47.018  1.00  1.90    -0.271 OA
ATOM     43  N   CYS     9      36.899  42.052  47.006  1.00  2.59    -0.345 N 
ATOM     44  H   CYS     9      36.393  42.761  46.481  1.00  2.59     0.163 HD
ATOM     45  CA  CYS     9      37.357  42.385  48.351  1.00  2.59     0.186 C 
ATOM     46  C   CYS     9      36.158  42.405  49.308  1.00  2.59     0.244 C 
ATOM     47  O   CYS     9      35.402  43.372  49.283  1.00  2.59    -0.271 OA
ATOM     48  N   PRO    10      35.966  41.355  50.134  1.00  3.62    -0.337 N 
ATOM     49  CD  PRO    10      36.757  40.130  50.211  1.00  3.62     0.127 C 
ATOM     50  CG  PRO    10      36.238  39.350  51.417  1.00  3.62     0.022 C 
ATOM     51  CB  PRO    10      34.789  39.812  51.524  1.00  3.62     0.037 C 
ATOM     52  CA  PRO    10      34.863  41.279  51.084  1.00  3.62     0.179 C 
ATOM     53  C   PRO    10      35.063  42.279  52.239  1.00  3.62     0.241 C 
ATOM     54  O   PRO    10      35.487  41.912  53.337  1.00  3.62    -0.271 OA
ATOM     55  N   SER    11      34.844  43.566  51.976  1.00  3.79    -0.344 N 
ATOM     56  H   SER    11      34.480  43.793  51.050  1.00  3.79     0.163 HD
ATOM     57  CA  SER    11      34.909  44.647  52.962  1.00  3.79     0.200 C 
ATOM     58  C   SER    11      34.036  45.859  52.594  1.00  3.79     0.245 C 
ATOM     59  O   SER    11      33.120  46.170  53.352  1.00  3.79    -0.271 OA
ATOM     60  N   PRO    12      34.215  46.501  51.425  1.00  4.35    -0.337 N 
ATOM     61  CD  PRO    12      35.436  46.586  50.631  1.00  4.35     0.127 C 
ATOM     62  CG  PRO    12      35.057  47.298  49.331  1.00  4.35     0.022 C 
ATOM     63  CB  PRO    12      33.756  48.014  49.695  1.00  4.35     0.037 C 
ATOM     64  CA  PRO    12      33.089  47.002  50.639  1.00  4.35     0.179 C 
ATOM     65  C   PRO    12      32.436  45.808  49.907  1.00  4.35     0.241 C 
ATOM     66  O   PRO    12      32.692  44.646  50.239  1.00  4.35    -0.271 OA
ATOM     67  N   ASP    13      31.683  46.079  48.846  1.00  3.50    -0.346 N 
ATOM     68  H   ASP    13      31.508  47.048  48.635  1.00  3.50     0.163 HD
ATOM     69  CA  ASP    13      31.724  45.210  47.663  1.00  3.50     0.186 C 
ATOM     70  C   ASP    13      32.401  45.982  46.527  1.00  3.50     0.241 C 
ATOM     71  O   ASP    13      32.476  47.212  46.542  1.00  3.50    -0.271 OA
ATOM     72  N   GLY    14      32.981  45.242  45.590  1.00  2.51    -0.351 N 
ATOM     73  H   GLY    14      32.794  44.238  45.602  1.00  2.51     0.163 HD
ATOM     74  CA  GLY    14      33.946  45.761  44.635  1.00  2.51     0.225 C 
ATOM     75  C   GLY    14      35.176  44.867  44.547  1.00  2.51     0.236 C 
ATOM     76  O   GLY    14      35.258  43.782  45.126  1.00  2.51    -0.272 OA
ATOM     77  N   MET    15      36.172  45.366  43.821  1.00  1.91    -0.346 N 
ATOM     78  H   MET    15      36.069  46.275  43.396  1.00  1.91     0.163 HD
ATOM     79  CA  MET    15      37.445  44.681  43.649  1.00  1.91     0.177 C 
ATOM     80  C   MET    15      38.610  45.617  43.960  1.00  1.91     0.241 C 
ATOM     81  O   MET    15      38.732  46.689  43.367  1.00  1.91    -0.271 OA
ATOM     82  N   VAL    16      39.497  45.186  44.858  1.00  1.74    -0.346 N 
ATOM     83  H   VAL    16      39.351  44.255  45.229  1.00  1.74     0.163 HD
ATOM     84  CA  VAL    16      40.855  45.735  44.903  1.00  1.74     0.180 C 
ATOM     85  C   VAL    16      41.611  45.295  43.644  1.00  1.74     0.241 C 
ATOM     86  O   VAL    16      41.271  44.285  43.026  1.00  1.74    -0.271 OA
ATOM     87  N   LEU    17      42.638  46.049  43.256  1.00  1.72    -0.346 N 
ATOM     88  H   LEU    17      42.876  46.860  43.802  1.00  1.72     0.163 HD
ATOM     89  CA  LEU    17      43.359  45.839  42.008  1.00  1.72     0.177 C 
ATOM     90  C   LEU    17      44.876  45.876  42.246  1.00  1.72     0.240 C 
ATOM     91  O   LEU    17      45.549  46.891  42.052  1.00  1.72    -0.271 OA
ATOM     92  N   GLY    18      45.419  44.756  42.718  1.00  2.15    -0.351 N 
ATOM     93  H   GLY    18      44.846  43.917  42.747  1.00  2.15     0.163 HD
ATOM     94  CA  GLY    18      46.825  44.607  43.071  1.00  2.15     0.225 C 
ATOM     95  C   GLY    18      47.729  44.567  41.842  1.00  2.15     0.236 C 
ATOM     96  O   GLY    18      47.941  43.527  41.230  1.00  2.15    -0.272 OA
ATOM     97  N   SER    19      48.309  45.716  41.502  1.00  2.45    -0.344 N 
ATOM     98  H   SER    19      48.018  46.541  42.007  1.00  2.45     0.163 HD
ATOM     99  CA  SER    19      49.309  45.860  40.428  1.00  2.45     0.200 C 
ATOM    100  C   SER    19      50.702  45.280  40.752  1.00  2.45     0.243 C 
ATOM    101  O   SER    19      51.660  45.477  39.997  1.00  2.45    -0.271 OA
ATOM    102  N   ASN    20      50.785  44.540  41.860  1.00  3.12    -0.345 N 
ATOM    103  H   ASN    20      49.922  44.411  42.369  1.00  3.12     0.163 HD
ATOM    104  CA  ASN    20      51.862  43.656  42.290  1.00  3.12     0.185 C 
ATOM    105  C   ASN    20      51.193  42.394  42.872  1.00  3.12     0.243 C 
ATOM    106  O   ASN    20      50.331  42.567  43.744  1.00  3.12    -0.271 OA
ATOM    107  N   PRO    21      51.549  41.168  42.438  1.00  3.70    -0.337 N 
ATOM    108  CD  PRO    21      52.488  40.872  41.364  1.00  3.70     0.127 C 
ATOM    109  CG  PRO    21      52.322  39.383  41.062  1.00  3.70     0.022 C 
ATOM    110  CB  PRO    21      51.892  38.800  42.405  1.00  3.70     0.037 C 
ATOM    111  CA  PRO    21      51.026  39.918  42.997  1.00  3.70     0.179 C 
ATOM    112  C   PRO    21      51.009  39.916  44.528  1.00  3.70     0.241 C 
ATOM    113  O   PRO    21      52.061  39.955  45.161  1.00  3.70    -0.271 OA
ATOM    114  N   SER    22      49.811  39.976  45.116  1.00  3.74    -0.344 N 
ATOM    115  H   SER    22      49.000  39.850  44.514  1.00  3.74     0.163 HD
ATOM    116  CA  SER    22      49.557  40.233  46.547  1.00  3.74     0.200 C 
ATOM    117  C   SER    22      48.051  40.279  46.812  1.00  3.74     0.243 C 
ATOM    118  O   SER    22      47.354  39.392  46.339  1.00  3.74    -0.271 OA
ATOM    119  N   CYS    23      47.550  41.294  47.530  1.00  3.42    -0.345 N 
ATOM    120  H   CYS    23      48.239  41.963  47.841  1.00  3.42     0.163 HD
ATOM    121  CA  CYS    23      46.158  41.769  47.651  1.00  3.42     0.185 C 
ENDROOT
BRANCH  69 122
ATOM    122  CB  ASP    13      30.314  44.727  47.287  1.00  3.50     0.147 C 
BRANCH 122 123
ATOM    123  CG  ASP    13      30.338  43.791  46.070  1.00  3.50     0.175 C 
ATOM    124  OD2 ASP    13      29.435  43.926  45.219  1.00  3.50    -0.648 OA
ATOM    125  OD1 ASP    13      31.294  42.986  45.974  1.00  3.50    -0.648 OA
ENDBRANCH 122 123
ENDBRANCH  69 122
BRANCH  57 126
ATOM    126  CB  SER    11      36.357  45.047  53.274  1.00  3.79     0.199 C 
BRANCH 126 127
ATOM    127  OG  SER    11      36.941  44.081  54.122  1.00  3.79    -0.398 OA
ATOM    128  HG  SER    11      36.533  43.218  53.915  1.00  3.79     0.209 HD
ENDBRANCH 126 127
ENDBRANCH  57 126
BRANCH  79 129
ATOM    129  CB  MET    15      37.586  44.147  42.214  1.00  1.91     0.045 C 
BRANCH 129 130
ATOM    130  CG  MET    15      36.515  43.117  41.843  1.00  1.91     0.076 C 
BRANCH 130 131
ATOM    131  SD  MET    15      36.718  42.429  40.185  1.00  1.91    -0.173 SA
ATOM    132  CE  MET    15      35.285  41.322  40.160  1.00  1.91     0.089 C 
ENDBRANCH 130 131
ENDBRANCH 129 130
ENDBRANCH  79 129
BRANCH  45 133
ATOM    133  CB  CYS     9      38.152  43.706  48.321  1.00  2.59     0.105 C 
BRANCH 133 134
ATOM    134  SG  CYS     9      37.253  45.060  47.507  1.00  2.59    -0.180 SA
ATOM    135  HG  CYS     9      36.066  44.809  48.093  1.00  2.59     0.101 HD
ENDBRANCH 133 134
ENDBRANCH  45 133
BRANCH  84 136
ATOM    136  CB  VAL    16      41.582  45.352  46.213  1.00  1.74     0.009 C 
ATOM    137  CG1 VAL    16      41.908  43.863  46.346  1.00  1.74     0.012 C 
ATOM    138  CG2 VAL    16      42.880  46.148  46.414  1.00  1.74     0.012 C 
ENDBRANCH  84 136
BRANCH  89 139
ATOM    139  CB  LEU    17      42.862  46.856  40.960  1.00  1.72     0.038 C 
BRANCH 139 140
ATOM    140  CG  LEU    17      43.427  46.655  39.537  1.00  1.72    -0.020 C 
ATOM    141  CD1 LEU    17      43.095  45.271  38.984  1.00  1.72     0.009 C 
ATOM    142  CD2 LEU    17      42.825  47.698  38.597  1.00  1.72     0.009 C 
ENDBRANCH 139 140
ENDBRANCH  89 139
BRANCH  28 143
ATOM    143  CB  LEU     6      40.845  42.135  39.563  1.00  1.59     0.038 C 
BRANCH 143 144
ATOM    144  CG  LEU     6      40.522  40.930  38.647  1.00  1.59    -0.020 C 
ATOM    145  CD1 LEU     6      39.599  39.894  39.289  1.00  1.59     0.009 C 
ATOM    146  CD2 LEU     6      39.802  41.447  37.399  1.00  1.59     0.009 C 
ENDBRANCH 143 144
ENDBRANCH  28 143
BRANCH  99 147
ATOM    147  CB  SER    19      49.386  47.336  40.023  1.00  2.45     0.199 C 
BRANCH 147 148
ATOM    148  OG  SER    19      48.126  47.751  39.526  1.00  2.45    -0.398 OA
ATOM    149  HG  SER    19      47.464  47.733  40.228  1.00  2.45     0.209 HD
ENDBRANCH 147 148
ENDBRANCH  99 147
BRANCH  23 150
ATOM    150  CB  GLN     5      46.508  40.234  40.890  1.00  1.67     0.044 C 
BRANCH 150 151
ATOM    151  CG  GLN     5      45.834  39.124  41.706  1.00  1.67     0.105 C 
BRANCH 151 152
ATOM    152  CD  GLN     5      46.456  39.056  43.090  1.00  1.67     0.215 C 
ATOM    153  OE1 GLN     5      47.660  38.932  43.262  1.00  1.67    -0.274 OA
ATOM    154  NE2 GLN     5      45.670  39.189  44.131  1.00  1.67    -0.370 N 
ATOM    155 1HE2 GLN     5      44.682  39.311  44.019  1.00  1.67     0.159 HD
ATOM    156 2HE2 GLN     5      46.137  39.132  45.029  1.00  1.67     0.159 HD
ENDBRANCH 151 152
ENDBRANCH 150 151
ENDBRANCH  23 150
BRANCH 104 157
ATOM    157  CB  ASN    20      52.702  44.371  43.360  1.00  3.12     0.137 C 
BRANCH 157 158
ATOM    158  CG  ASN    20      53.796  43.461  43.894  1.00  3.12     0.217 C 
ATOM    159  OD1 ASN    20      54.762  43.175  43.210  1.00  3.12    -0.274 OA
ATOM    160  ND2 ASN    20      53.672  42.957  45.099  1.00  3.12    -0.370 N 
ATOM    161 2HD2 ASN    20      54.374  42.292  45.377  1.00  3.12     0.159 HD
ATOM    162 1HD2 ASN    20      52.858  43.134  45.657  1.00  3.12     0.159 HD
ENDBRANCH 157 158
ENDBRANCH 104 157
BRANCH  18 163
ATOM    163  CB  VAL     4      46.619  44.699  36.775  1.00  1.99     0.009 C 
ATOM    164  CG1 VAL     4      47.740  45.725  36.593  1.00  1.99     0.012 C 
ATOM    165  CG2 VAL     4      46.087  44.360  35.371  1.00  1.99     0.012 C 
ENDBRANCH  18 163
BRANCH 116 166
ATOM    166  CB  SER    22      50.295  41.501  47.042  1.00  3.74     0.199 C 
BRANCH 166 167
ATOM    167  OG  SER    22      49.852  42.662  46.366  1.00  3.74    -0.398 OA
ATOM    168  HG  SER    22      50.028  42.547  45.406  1.00  3.74     0.209 HD
ENDBRANCH 166 167
ENDBRANCH 116 166
BRANCH   8 169
ATOM    169  CG  ARG     2      50.891  46.123  34.252  1.00  3.58     0.023 C 
BRANCH 169 170
ATOM    170  CD  ARG     2      52.395  45.787  34.298  1.00  3.58     0.138 C 
BRANCH 170 171
ATOM    171  NE  ARG     2      53.113  46.522  35.368  1.00  3.58    -0.227 N 
ATOM    172  HE  ARG     2      53.756  47.233  35.062  1.00  3.58     0.177 HD
ATOM    173  CZ  ARG     2      53.029  46.312  36.680  1.00  3.58     0.665 C 
ATOM    174  NH1 ARG     2      52.242  45.432  37.218  1.00  3.58    -0.235 N 
ATOM    175  NH2 ARG     2      53.753  47.001  37.516  1.00  3.58    -0.235 N 
ATOM    176 1HH1 ARG     2      51.677  44.825  36.632  1.00  3.58     0.174 HD
ATOM    177 2HH1 ARG     2      52.154  45.350  38.225  1.00  3.58     0.174 HD
ATOM    178 1HH2 ARG     2      54.417  47.681  37.196  1.00  3.58     0.174 HD
ATOM    179 2HH2 ARG     2      53.651  46.806  38.498  1.00  3.58     0.174 HD
ENDBRANCH 170 171
ENDBRANCH 169 170
ENDBRANCH   8 169
BRANCH 121 180
ATOM    180  CB  CYS    23      45.863  42.676  46.445  1.00  3.42     0.105 C 
BRANCH 180 181
ATOM    181  SG  CYS    23      46.922  44.154  46.508  1.00  3.42    -0.180 SA
ATOM    182  HG  CYS    23      48.109  43.533  46.415  1.00  3.42     0.101 HD
ENDBRANCH 180 181
ENDBRANCH 121 180
BRANCH 121 183
ATOM    183  C   CYS    23      45.010  40.763  47.898  1.00  3.42     0.241 C 
ATOM    184  N   ALA    24      45.264  39.460  47.968  1.00  4.93    -0.348 N 
ATOM    185  H   ALA    24      46.210  39.161  47.783  1.00  4.93     0.163 HD
ATOM    186  O   CYS    23      43.865  41.181  48.036  1.00  3.42    -0.271 OA
BRANCH 184 187
ATOM    187  CA  ALA    24      44.262  38.418  48.089  1.00  4.93     0.158 C 
ATOM    188  CB  ALA    24      44.959  37.054  47.993  1.00  4.93     0.041 C 
BRANCH 187 189
ATOM    189  C   ALA    24      43.434  38.580  49.380  1.00  4.93     0.219 C 
ATOM    190  O   ALA    24      43.602  39.480  50.203  1.00  4.93    -0.287 OA
ENDBRANCH 187 189
ENDBRANCH 184 187
ENDBRANCH 121 183
TORSDOF 74
